// Generated for: spectre
// Generated on: May  9 12:44:52 2025
// Design library name: EE_140_240A_Final_Project
// Design cell name: EE_140_240A_Sp25_System
// Design view name: schematic
simulator lang=spectre
global 0
