// Generated for: spectre
// Generated on: May  7 20:50:22 2025
// Design library name: EE_140_240A_Final_Project
// Design cell name: aaa-Final_LDO_VDDDA
// Design view name: schematic
simulator lang=spectre
global 0
