// Generated for: spectre
// Generated on: May  7 02:59:18 2025
// Design library name: EE_140_240A_Final_Project
// Design cell name: Final-BGR
// Design view name: schematic
simulator lang=spectre
global 0
