// Generated for: spectre
// Generated on: May  6 20:03:16 2025
// Design library name: EE_140_240A_Final_Project
// Design cell name: Final-BGR-adcref
// Design view name: schematic
simulator lang=spectre
global 0
